[TITLE]

[JUNCTIONS]
;02819P24
 R342800F        	33.884      	0           	                
;02819P22
 R4042F5E        	12.938      	0           	                
 0026CF0D        	54.25       	16          	02819T1         
 0026CF3A        	54.01       	5           	02819T1         
;02819P20
 0026CF36        	57.381      	0           	                
 0026CF33        	54.01       	6           	02819T1         
 0026CF32        	60.48       	8           	02819T1         
 0026CF30        	57.32       	9           	02819T1         
 0026CF2F        	61.01       	4           	02819T1         
 0026CF2B        	54.23       	0           	                
 0026CF1D        	42.62       	2           	02819T1         
 0026CF18        	43.67       	13          	02819T1         
 0026CF16        	37.38       	7           	02819T1         
 0026CF11        	42.86       	13          	02819T1         
 0026CF94        	40.99       	0           	                
 0026CF0E        	56.1        	10          	02819T1         
 0026CF46        	54.01       	9           	02819T1         
 0026CF04        	63.91       	0           	                
 0026CF01        	63.16       	0           	                
 0026CF00        	61.92       	0           	                
 0026CEFB        	61.12       	8           	02819T1         
 0026CEFA        	58.56       	0           	                
 0026CB84        	43.99       	6           	02819T1         
 0026CB7F        	69.66       	0           	                
 0026CB7D        	69.83       	0           	                
 0026CB76        	67.4        	0           	                
 0026CB74        	60.54       	0           	                
 0026CB70        	61.12       	0           	                
 0026CAC3        	85.42       	0           	                
 0026CF10        	42.25       	1           	02819T1         
 0026CF6D        	18.04       	3           	02819T1         
 029B3486        	27.18       	14          	02819T1         
 0026CF91        	32.92       	7           	02819T1         
 0026CF8E        	33.4        	10          	02819T1         
 0026CF8D        	32.62       	4           	02819T1         
 0026CF8A        	42.56       	10          	02819T1         
 0026CF87        	39.36       	0           	                
 0026CF83        	34.51       	7           	02819T1         
 0026CF81        	42.48       	0           	                
 0026CF7F        	39.11       	0           	                
 0026CF7E        	46          	8           	02819T1         
 0026CF7B        	40.99       	19          	02819T1         
 0026CF79        	46.11       	1           	02819T1         
 0026CF42        	54.01       	0           	                
 0026CF75        	20.61       	0           	                
 0026CF44        	54.01       	0           	                
 0026CF6C        	20.69       	3           	02819T1         
 0026CF69        	17.55       	5           	02819T1         
 0026CF68        	17.9        	0           	                
 0026CF60        	17.77       	5           	02819T1         
 0026CF5C        	42.16       	20          	02819T1         
 0026CF5A        	41.4        	4           	02819T1         
 0026CF57        	49.83       	3           	02819T1         
 0026CF56        	53.55       	4           	02819T1         
;02819P09
 0026CF54        	47.564      	0           	                
 0026CF50        	56.1        	0           	                
 0026CF4E        	56.1        	2           	02819T1         
 0026CABE        	85.71       	0           	                
 0026CF77        	28.29       	12          	02819T1         
 0026CA11        	13.91       	0           	                
 0026CAC1        	85.54       	0           	                
 0026CA30        	16.18       	13          	02819T1         
 0026CA2C        	13.91       	0           	                
 0026CA2B        	16.13       	4           	02819T1         
 0026CA28        	16.78       	1           	02819T1         
 0026CA26        	12.59       	0           	                
 0026CA23        	13.91       	3           	02819T1         
 0026CA22        	16.74       	2           	02819T1         
 0026CA20        	13.91       	15          	02819T1         
 0026CA1E        	16.17       	17          	02819T1         
 0026CA1D        	13.46       	19          	02819T1         
 0026CA16        	32.15       	17          	02819T1         
 0026CA33        	16.88       	12          	02819T1         
 0026CA12        	15.42       	0           	                
 0026CA36        	16.95       	0           	                
 0026CA0F        	18.95       	14          	02819T1         
 0026CA0E        	18.98       	0           	                
 0026C9A6        	39.97       	0           	                
 0026C9A5        	11.8        	8           	02819T1         
 0026C9A2        	11.47       	8           	02819T1         
 0026C99E        	11.88       	0           	                
 0026C993        	12.91       	1           	02819T1         
 0026C901        	15.49       	0           	                
 0026C861        	40.55       	0           	                
 0026C860        	28.76       	0           	                
 0026C83B        	10.42       	0           	                
 0026C83A        	10          	10          	02819T1         
 0026CA14        	13.91       	0           	                
 0026CA66        	32.54       	0           	                
 0026CF96        	37.08       	3           	02819T1         
 0026CABC        	85.37       	0           	                
 0026CAB5        	85.86       	0           	                
 0026CAB2        	86.09       	0           	                
 0026CA91        	79          	4           	02819T1         
 0026CA90        	70.41       	1           	02819T1         
 0026CA8D        	74.33       	0           	                
 0026CA8C        	85.29       	0           	                
 0026CA73        	21.66       	3           	02819T1         
 0026CA71        	21.15       	1           	02819T1         
 0026CA70        	22.23       	4           	02819T1         
 0026CA6B        	40.28       	15          	02819T1         
 0026CA32        	13.91       	0           	                
 0026CA68        	40.43       	8           	02819T1         
 0026CABF        	85.95       	0           	                
 0026CA5A        	21.43       	1           	02819T1         
 0026CA57        	21.87       	4           	02819T1         
 0026CA55        	21.61       	3           	02819T1         
 0026CA51        	32.57       	0           	                
 0026CA4F        	34.12       	3           	02819T1         
 0026CA4C        	21.96       	5           	02819T1         
 0026CA4B        	32.64       	7           	02819T1         
 0026CA48        	22.53       	4           	02819T1         
 0026CA3E        	13.91       	0           	                
 0026CA3D        	13.91       	0           	                
 0026CA39        	13.91       	1           	02819T1         
 0026CA38        	13.91       	0           	                
 0026CA6A        	22.51       	0           	                
 0299D6EB        	40.44       	0           	                
 0299DBD4        	24.18       	1           	02819T1         
 0299D8F7        	23.55       	2           	02819T1         
 0299D8F5        	23.52       	3           	02819T1         
 0299D8F2        	23.49       	0           	                
 0299D8F0        	23.41       	2           	02819T1         
 0299D8EE        	23.42       	3           	02819T1         
 0299D8EC        	27.4        	4           	02819T1         
 0299D8EA        	23.42       	0           	                
 0299D7F7        	23.56       	1           	02819T1         
 0299D7F5        	22.7        	2           	02819T1         
 0299D6F2        	39.22       	1           	02819T1         
 0026CF92        	36.9        	2           	02819T1         
 0299D6ED        	40.49       	5           	02819T1         
 0299E5E2        	42.12       	0           	                
 0299D6E7        	40.37       	0           	                
 0299D6E5        	39.11       	3           	02819T1         
 0299D6E4        	42.47       	2           	02819T1         
;02819P16
 0299D6E3        	42.647      	3           	02819T1         
 0297A2FD        	11.63       	12          	02819T1         
 02748FBD        	28.1        	1           	02819T1         
 027446B1        	23.56       	0           	                
 027446AD        	18.01       	4           	02819T1         
 027446AB        	18.02       	0           	                
 027446A9        	16.88       	4           	02819T1         
 027446A7        	17.2        	0           	                
 027446A3        	13.07       	0           	                
 0299D6F0        	39.17       	0           	                
 029B2750        	41.82       	0           	                
 0000D854        	19.55       	0           	                
 029B3317        	35.57       	0           	                
 029B3315        	35.81       	16          	02819T1         
 029B3313        	35.55       	10          	02819T1         
 029B330E        	38.68       	0           	                
 029B330D        	38.8        	0           	                
 029B31A8        	38.35       	3           	02819T1         
 029B31A5        	38.52       	2           	02819T1         
 029B31A0        	39.93       	12          	02819T1         
 029B2B06        	33.09       	14          	02819T1         
 029B2A3A        	42.35       	3           	02819T1         
 029B2A30        	56.1        	16          	02819T1         
 0299DBDA        	21.26       	8           	02819T1         
 029B275C        	31.71       	0           	                
 0299E5DD        	40.2        	0           	                
 029B274C        	41.82       	0           	                
 0299F0A0        	41.79       	5           	02819T1         
 0299EFEE        	43.64       	4           	02819T1         
 0299EFE8        	44.19       	0           	                
 0299EFE6        	44.3        	5           	02819T1         
 0299EFE4        	44.33       	0           	                
 0299EFE2        	44.3        	0           	                
 0299EB85        	39.03       	6           	02819T1         
 0299EA65        	30.99       	7           	02819T1         
 0299EA63        	30.98       	13          	02819T1         
 0299E5E4        	42.11       	0           	                
 01DC729C        	62.59       	0           	                
 029B275F        	31.74       	13          	02819T1         
 0026CFB7        	39.91       	2           	02819T1         
 027446A1        	12.97       	0           	                
 01CBB80C        	16.48       	2           	02819T1         
 01CBB80A        	15.74       	8           	02819T1         
 0026CFD5        	37.13       	0           	                
 0026CFD3        	36.98       	0           	                
 0026CFD2        	34.55       	4           	02819T1         
 0026CFD0        	40.99       	0           	                
 0026CFCB        	40.99       	2           	02819T1         
 0026CFC8        	40.99       	2           	02819T1         
 0026CFC2        	39.54       	0           	                
 0026CFBF        	29.7        	0           	                
 0026CFBD        	36.52       	1           	02819T1         
 01CEB274        	19.48       	2           	02819T1         
 0026CFBA        	32.59       	6           	02819T1         
 01CEB305        	20.29       	0           	                
 0026CFB6        	40.92       	0           	                
 0026CFB4        	38.6        	7           	02819T1         
 0026CFAD        	23.61       	1           	02819T1         
 0026CFAC        	22.52       	0           	                
 0026CFAA        	22.5        	0           	                
 0026CFA8        	22.77       	1           	02819T1         
 0026CFA7        	23.01       	1           	02819T1         
 0026CFA3        	23          	4           	02819T1         
 0026CFA0        	22.92       	0           	                
 0026CF9F        	19.01       	4           	02819T1         
 0026CF9D        	22.4        	7           	02819T1         
 0026CF9A        	26.82       	7           	02819T1         
 0026CFBB        	38.54       	3           	02819T1         
 01CEC8E9        	17.7        	0           	                
 0026C833        	11.33       	6           	02819T1         
 01DC729A        	62.32       	0           	                
 01DC716A        	79          	2           	02819T1         
 01DBE6F4        	13.45       	0           	                
 01D6ED3D        	20.29       	1           	02819T1         
 01D5C94E        	14.13       	4           	02819T1         
 01D5C94C        	13.47       	2           	02819T1         
 01CECA9F        	13.81       	2           	02819T1         
 01CEC8F5        	14.65       	1           	02819T1         
 01CEC8F3        	11.56       	1           	02819T1         
 01CEC8F1        	17.83       	0           	                
 01CEC8EF        	17.99       	0           	                
 01CEB272        	58.58       	17          	02819T1         
 01CEC8EB        	17.6        	0           	                
 0274469E        	15.27       	9           	02819T1         
;02819P02
 01CEC8E7        	13.713      	3           	02819T1         
 01CEC513        	14.74       	1           	02819T1         
 01CEB359        	39          	1           	02819T1         
 01CEB357        	39          	0           	                
 01CEB354        	39.08       	6           	02819T1         
 01CEB353        	39.23       	7           	02819T1         
 01CEB315        	39          	0           	                
 01CEB314        	39          	4           	02819T1         
 01CEB312        	19.35       	2           	02819T1         
 01CEB30E        	19.6        	1           	02819T1         
 01CEB30B        	20.35       	0           	                
 01CEB307        	21.25       	3           	02819T1         
 01CEC8ED        	17.98       	0           	                
 000E9682        	34.78       	0           	                
 000E973A        	16.77       	7           	02819T1         
 000E971A        	21.69       	0           	                
 000E9714        	29          	4           	02819T1         
 000E970F        	21.57       	0           	                
 000E970C        	34.72       	15          	02819T1         
 000E96FE        	21.94       	0           	                
 000E96E0        	22.33       	3           	02819T1         
 000E96D3        	18.24       	3           	02819T1         
 000E96C8        	18.04       	11          	02819T1         
 000E96C1        	38.99       	3           	02819T1         
 000E96A9        	40.47       	5           	02819T1         
 0026C837        	10.72       	2           	02819T1         
 000E9688        	32.31       	4           	02819T1         
 000E9754        	13.91       	0           	                
 000E967D        	34.62       	0           	                
 000E9678        	32.45       	11          	02819T1         
 000E966D        	15.55       	0           	                
 000E9665        	15.59       	0           	                
 000E9643        	15.3        	0           	                
 000E9642        	16.59       	5           	02819T1         
 000E9637        	15.3        	2           	02819T1         
 000E9635        	15.4        	0           	                
 000E9633        	16.74       	5           	02819T1         
 000E962F        	16.08       	0           	                
 000E9628        	16.2        	2           	02819T1         
 000E9626        	15.97       	1           	02819T1         
 000E9692        	30.29       	8           	02819T1         
 0010F636        	22.09       	1           	02819T1         
 00193ED9        	10.97       	8           	02819T1         
 00193ED3        	12.92       	0           	                
 0013EEFB        	15.67       	0           	                
 0013AE11        	14.78       	12          	02819T1         
 0013ADF3        	15.87       	7           	02819T1         
 0012F6F1        	11.48       	0           	                
 0012E257        	14          	14          	02819T1         
 0012E249        	12.97       	1           	02819T1         
 0012E244        	12.44       	0           	                
 00129FB1        	12.4        	0           	                
 00119F2A        	14.07       	6           	02819T1         
 00119D31        	13.99       	0           	                
 000E974A        	21.04       	10          	02819T1         
 00110497_       	16.74       	6           	02819T1         
 000E974E        	13.91       	1           	02819T1         
 000ED58F        	18.22       	14          	02819T1         
 000ED580        	21.3        	0           	                
 000ED4C1        	18.23       	4           	02819T1         
 000ED4AF        	21.55       	9           	02819T1         
 000ED41D        	22.46       	0           	                
 000ED3CB        	16.76       	0           	                
 000E9CC5        	37.35       	0           	                
;02819P08
 000E9CBA        	36.26       	13          	02819T1         
 000E9C0D        	12.49       	0           	                
 000E9797        	13.39       	15          	02819T1         
 000E977B        	13.91       	0           	                
 000E95C6        	19          	8           	02819T1         
 0011725A        	16.72       	2           	02819T1         
 000E924D        	21.35       	5           	02819T1         
 000E9615        	15.44       	0           	                
 000E92A7        	18.23       	0           	                
 000E92A4        	13.39       	7           	02819T1         
 000E92A3        	13.19       	4           	02819T1         
 000E929E        	14.12       	6           	02819T1         
 000E929A        	15.3        	2           	02819T1         
 000E9292        	15.28       	0           	                
 000E9289        	17.67       	1           	02819T1         
 000E9283        	14.23       	1           	02819T1         
 000E9275        	16.82       	0           	                
 000E9274        	17.45       	5           	02819T1         
 000E9265        	16.76       	4           	02819T1         
 000E92B9        	15.2        	3           	02819T1         
 000E924E        	19.51       	5           	02819T1         
 000E92BB        	15.57       	6           	02819T1         
 000E9244        	22.88       	0           	                
 000E79A7        	79          	0           	                
 000E79A6        	85.48       	0           	                
 000E79A3        	84.18       	1           	02819T1         
 000E5978        	67.57       	0           	                
 000E5933        	61.99       	0           	                
 000E592A        	69.57       	0           	                
 000E5928        	64.63       	0           	                
 000E5737        	17.95       	2           	02819T1         
 000E5703        	17.56       	0           	                
 000E5701        	17.1        	0           	                
 0000D857        	18.31       	1           	02819T1         
 000E9253        	17.75       	0           	                
 000E9573        	41.66       	0           	                
 001B8F20        	17.5        	18          	02819T1         
 000E95C4        	27.34       	0           	                
 000E95BD        	25.01       	0           	                
 000E95AE        	41.48       	6           	02819T1         
 000E95AC        	30.49       	6           	02819T1         
 000E9596        	48.97       	0           	                
 000E9595        	49.9        	0           	                
 000E9591        	48.99       	3           	02819T1         
 000E958D        	40.55       	1           	02819T1         
 000E9586        	25          	11          	02819T1         
 000E9585        	30.39       	8           	02819T1         
 000E9582        	19.01       	5           	02819T1         
 000E92B8        	14.14       	1           	02819T1         
 000E9577        	42.32       	0           	                
 000E95CA        	19.01       	0           	                
 000E956D        	41.74       	0           	                
 000E9565        	41.86       	1           	02819T1         
 000E955B        	15.03       	2           	02819T1         
 000E954D        	13.02       	0           	                
 000E9548        	9           	7           	02819T1         
 000E9542        	13.01       	0           	                
 000E9540        	16.93       	0           	                
 000E9535        	14.69       	1           	02819T1         
 000E9422        	16.9        	10          	02819T1         
 000E93FB        	17.2        	8           	02819T1         
 000E92BE        	15.31       	7           	02819T1         
 000E92BC        	15.21       	0           	                
 000E957C        	30.28       	18          	02819T1         
 0022FA90        	42.34       	0           	                
 00228709_       	35.93       	14          	02819T1         
 0026C68C        	13.81       	0           	                
 0026C68A        	13.79       	0           	                
 0025BDA0        	18.09       	2           	02819T1         
 00255228_       	17.54       	4           	02819T1         
 00255223_       	18.54       	0           	                
 0023AF70        	18.54       	0           	                
 0023AF68        	17.53       	0           	                
 0023AEAF        	13.91       	0           	                
 0022FA9E        	53.22       	0           	                
 0022FA9D        	35.82       	0           	                
 0022FA98        	66.26       	0           	                
 0026C6B1        	20.74       	8           	02819T1         
 0022FA95        	62.71       	0           	                
 0026C6B3        	56.01       	10          	02819T1         
 0022FA88        	61.02       	0           	                
 0022FA7F        	54.01       	0           	                
 0022FA76        	54.26       	12          	02819T1         
 0022FA74        	54.4        	0           	                
 0022FA6E        	58.57       	4           	02819T1         
 0022FA4C        	61.41       	13          	02819T1         
 0022FA35        	24.4        	0           	                
;02819P12
 0022877A        	39.806      	8           	02819T1         
 00228779_       	35.1        	8           	02819T1         
 00228734_       	35.09       	10          	02819T1         
 00228727_       	35.13       	0           	                
 00193EE0        	14.56       	0           	                
 0022FA97        	63.97       	0           	                
 0026C761        	28.88       	0           	                
 029B3487        	26.96       	0           	                
 0026C832        	10.5        	0           	                
 0026C830        	13.23       	4           	02819T1         
 0026C82F        	10.49       	6           	02819T1         
 0026C77B        	12.49       	1           	02819T1         
 0026C775        	18.99       	0           	                
 0026C773        	18.87       	0           	                
 0026C771        	19.08       	0           	                
 0026C770        	18.94       	0           	                
 0026C76D        	19.01       	0           	                
 0026C76A        	16.16       	0           	                
 0026C769        	19.02       	0           	                
 0026C6AC        	46.09       	4           	02819T1         
 0026C762        	25.95       	0           	                
 002286F7        	34.29       	0           	                
 0026C706        	19.67       	2           	02819T1         
 0026C704        	19.13       	0           	                
 0026C703        	19.57       	1           	02819T1         
 0026C6FF        	18.78       	0           	                
 0026C6D3        	15.1        	12          	02819T1         
 0026C6CF        	18.34       	1           	02819T1         
 0026C6CC        	16.42       	0           	                
;02819P01
 0026C6CA        	15.286      	4           	02819T1         
 0026C6C9        	16.69       	0           	                
 0026C6BC        	16.47       	4           	02819T1         
 0026C6B7        	16.45       	0           	                
 0026C6B6        	16.72       	6           	02819T1         
 0026C766        	19.3        	0           	                
 001F9C25        	10.62       	0           	                
 00228713_       	23.57       	0           	                
 00215DF3        	17.86       	5           	02819T1         
 00215DED        	36.12       	7           	02819T1         
 00215DEC        	22.89       	0           	                
 00215DEB        	31.85       	4           	02819T1         
 00215DE4        	36.98       	5           	02819T1         
 00215DD8        	23.64       	0           	                
 00215D92        	23.6        	0           	                
 00215D8E        	23.38       	0           	                
 00215D7D        	40.99       	10          	02819T1         
 00215B65        	16.65       	2           	02819T1         
 001F9C4C        	10.74       	0           	                
 0021D6BE        	61.01       	0           	                
 001F9C29        	12.38       	1           	02819T1         
 0021D6D5        	54.56       	0           	                
 001F9C21        	10.91       	5           	02819T1         
 001F9C1C        	10.69       	0           	                
 001C7B26        	12.99       	3           	02819T1         
 001B904E        	15.07       	0           	                
 001B901B        	17.65       	4           	02819T1         
 001B9004        	17.51       	0           	                
 001B9001        	17.05       	0           	                
 001B8FFE        	17.02       	0           	                
 001B8FBB        	18.02       	4           	02819T1         
 001B8FB8        	18.21       	0           	                
 001B8F3F        	21.53       	3           	02819T1         
 0026C835        	10.43       	1           	02819T1         
 001F9C4A        	12.31       	2           	02819T1         
 0021D7D1        	42.08       	0           	                
 002286E8        	34.31       	1           	02819T1         
 002286C3        	35.88       	2           	02819T1         
 0021E1B9        	46.07       	14          	02819T1         
 0021E193        	46.61       	4           	02819T1         
 0021E17A        	46.92       	0           	                
 0021D88E        	46.66       	2           	02819T1         
 0021D88A        	40.15       	0           	                
 0021D888        	34.91       	16          	02819T1         
 0021D854        	34.89       	4           	02819T1         
 0021D850        	42.09       	0           	                
 0021D81F        	39.32       	0           	                
;02819P18
 0021D816        	42.475      	1           	02819T1         
 00215E1C        	56.1        	0           	                
 0021D806        	42.13       	0           	                
 001B8F15        	11.5        	0           	                
 0021D7CF        	39.66       	2           	02819T1         
 0021D7CC        	39.8        	0           	                
 0021D7CB        	47.48       	3           	02819T1         
 0021D7C7        	49.69       	10          	02819T1         
 0021D78B        	47.64       	0           	                
 0021D714        	61.81       	5           	02819T1         
 0021D713        	61.01       	0           	                
 0021D700        	61.13       	0           	                
 0021D6FA        	63.16       	19          	02819T1         
 0021D6F2        	61.12       	1           	02819T1         
 0021D6E4        	54.39       	6           	02819T1         
 0021D6DB        	54.02       	5           	02819T1         
 0021D812        	39.91       	1           	02819T1         
 A026CA71        	21.15       	10          	02819T1         
 A026CF11        	42.86       	1           	02819T1         
 A026CF0E        	56.1        	0           	                
 A026CF04        	63.91       	0           	                
 A026CF00        	61.92       	2           	02819T1         
 A026CEFA        	58.56       	7           	02819T1         
 A026CB7D        	69.83       	0           	                
 A026CB70        	61.12       	0           	                
 A026CAC3        	85.42       	0           	                
 A026CAC1        	85.54       	0           	                
 A026CABE        	85.71       	0           	                
 A026CABC        	85.37       	0           	                
 A026CA28        	16.78       	0           	                
 A026CAB2        	86.09       	0           	                
 A026CF42        	54.01       	1           	02819T1         
 A026CA70        	22.23       	1           	02819T1         
 A026CA6B        	40.28       	0           	                
 A026CA6A        	22.51       	18          	02819T1         
 A026CA57        	21.87       	0           	                
 A026CA51        	32.57       	0           	                
 A026CA4F        	34.12       	2           	02819T1         
 A026CA4C        	21.96       	0           	                
 A026CA3E        	13.91       	0           	                
 A026CA36        	16.95       	16          	02819T1         
 A026CA32        	13.91       	9           	02819T1         
 A026CA30        	16.18       	0           	                