[TITLE]


[JUNCTIONS]
;ID              	Elev        	Demand      	Pattern         
 N1              	390         	0.1309      	1               	;12+14
 N2              	387         	0.1053      	1               	;91
 N3              	389         	0.1635      	1               	;91+14
 N4              	389         	0.1501      	1               	;12+15
 N5              	387         	0.1575      	1               	;90+91
 N6              	387         	0.0802      	1               	;3+90
 N7              	387         	0.0522      	1               	;90
 N8              	387         	0.0522      	1               	;90
 N9              	392         	0.1424      	1               	;76+95
 N10             	392         	0.151       	1               	;76+90
 N11             	392         	0.1682      	1               	;76+12
 N12             	389         	0.1682      	1               	;76+12
 N13             	388         	0.3216      	1               	;76+85
 N14             	379         	0.2194      	1               	;76+89
 N15             	378         	0.3782      	1               	;50+76+44+16
 N16             	387         	0.0468      	1               	;95
 N17             	384         	0.0468      	1               	;95
 N18             	383         	0.0248      	1               	;3
 N19             	381         	0.0468      	1               	;95
 N20             	378         	0.152       	1               	;95+91
 N21             	378         	0.226       	1               	;85
 N22             	378         	0.226       	1               	;85
 N23             	376.5       	0.1682      	1               	;91+6
 N24             	378         	0.2497      	1               	;91+83
 N25             	378         	0.2354      	1               	;91+111
 N26             	376         	0.1761      	1               	;98+111
 N27             	378         	0.1635      	1               	;91+14
 N28             	378         	0.1635      	1               	;91+14
 N29             	378         	0.2739      	1               	;83+108
 N30             	378         	0.1924      	1               	;6+108
 N31             	378         	0.063       	1               	;6
 N32             	378         	0.063       	1               	;6
 N33             	378         	0.2132      	1               	;6+108+36
 N34             	378         	0.063       	1               	;6
 N35             	378         	0.063       	1               	;6
 N36             	376         	0.1617      	1               	;98+91+61
 N37             	376         	0.1053      	1               	;91
 N38             	376         	0.0859      	1               	;98+101+7
 N39             	376         	0.0844      	1               	;97+10
 N40             	376         	0.1197      	1               	;97+104+87+77+63
 N41             	376         	0.0645      	1               	;103+77+63+46
 N42             	376         	0.1497      	1               	;75+59+100+77+63+46
 N43             	376         	0.1915      	1               	;104+100+91+87+77
 N44             	376         	0.1548      	1               	;100+91
 N45             	376         	0.2778      	1               	;91+108+96+61
 N46             	376         	0.0853      	1               	;102+104+87
 N47             	376         	0.1562      	1               	;64+97+75+59
 N48             	377         	0.1279      	1               	;109+105+98
 N49             	375         	0.2217      	1               	;79+76+99+109+105
 N50             	376         	0.0843      	1               	;60+109+98
 N51             	376         	0.0728      	1               	;60+98
 N52             	375         	0.0964      	1               	;60+79+47+86+45
 N53             	375         	0.0957      	1               	;60+79+47+86+109
 N54             	375         	0.0589      	1               	;106+79+86+45
 N55             	376         	0.0467      	1               	;106+98
 N56             	376         	0.0799      	1               	;73+98
 N57             	375         	0.3713      	1               	;44+88+37+73+79
 N58             	375         	0.0823      	1               	;88+82+22
 N59             	375         	0.097       	1               	;79+110+64
 N60             	376         	0.0265      	1               	;110
 N61             	376         	0.00076     	1               	;
 N62             	376         	0.00076     	1               	;
 N63             	376         	0.4364      	1               	;78+73+84
 N64             	378         	0.491       	1               	;85+84
 N65             	376         	0.1701      	1               	;93+78
 N66             	376         	0.1802      	1               	;92+93+89
 N67             	376         	0.27        	1               	;44+93
 N68             	376         	0.2729      	1               	;44+37
 N69             	376         	0.0356      	1               	;37
 N70             	376         	0.3144      	1               	;44+94
 N71             	376         	0.1008      	1               	;94+92
 N72             	376         	0.0771      	1               	;94
 N73             	376         	0.1238      	1               	;89
 N74             	376         	0.1238      	1               	;89
 N75             	376         	0.1238      	1               	;89
 N76             	376         	0.1238      	1               	;89
 N77             	378         	0.0093      	1               	;50
 N78             	378         	0           	1               	;0
 N79             	380         	0.0272      	1               	;50+5
 N80             	380         	0.2108      	1               	;112+50
 N81             	385         	0.0272      	1               	;50+5
 N82             	384         	0.1929      	1               	;112
 N83             	378         	0.1238      	1               	;89
 N84             	382         	1.78959     	1               	;15+50
 N85             	380         	0.0774      	1               	;15
 N86             	379         	0.0774      	1               	;15
 N87             	381         	0.0774      	1               	;15
 N88             	379         	0.1827      	1               	;15+91
 N89             	379         	0.1827      	1               	;15+91
 N90             	378         	0.1053      	1               	;91
 N91             	375         	0.0241      	1               	;88
 N92             	381.5       	0.2842      	1               	;82+22+66+8+1
 N93             	386         	0.1999      	1               	;17+66
 N94             	390         	0.1773      	1               	;66
 N95             	387         	0.0227      	1               	;17
 N96             	375         	0.283       	1               	;66+67+1+2+4
 N97             	376         	0.2649      	1               	;100+107+81+18
 N98             	376         	0.1012      	4               	;18
 N99             	376         	0.1467      	1               	;96+107+81
 N100            	376         	0.0857      	1               	;96+74
 N101            	377         	0.1161      	1               	;6+74
 N102            	376         	0.1053      	1               	;91
 N103            	376         	1.46704     	1               	;91+6+69
 N104            	376         	0.0611      	1               	;67
 N105            	376         	0.0611      	1               	;67
 N106            	376         	0.0611      	1               	;67
 N107            	372         	0.1756      	1               	;67+41+11
 N108            	372         	0.0093      	1               	;41
 N109            	380         	0.1218      	1               	;67+2+4+55
 N110            	383         	0.0098      	1               	;42
 N111            	378         	0.0955      	1               	;6+96
 N112            	375         	0.1977      	1               	;108+13+70
 N113            	375         	0.0866      	1               	;70+10
 N114            	375         	0.0683      	1               	;70
 N115            	374         	0.1846      	1               	;108+40+25
 N116            	374         	0.1539      	1               	;108+29
 N117            	374         	0.1109      	1               	;40+25+39+19
 N118            	374         	0.0837      	1               	;40+39+19
 N119            	378         	0.1702      	1               	;96+65
 N120            	375         	0.194       	1               	;96+65+20
 N121            	375         	0.2319      	1               	;20+65+23
 N122            	375         	0.2617      	1               	;30+65+20
 N123            	375         	0.0409      	1               	;96+40
 N124            	378         	0.253       	1               	;96+53+26
 N125            	379         	0.2927      	1               	;57+56+53+26
 N126            	380         	0.0723      	1               	;57+56
 N127            	381         	0.2205      	1               	;53+26
 N128            	375         	0.0705      	1               	;23
 N129            	374         	0.0406      	1               	;96+27
 N130            	373         	0.024       	1               	;27+33
 N131            	374         	0.0485      	1               	;96+33
 N132            	381         	0.1376      	1               	;65
 N133            	375         	0.2796      	1               	;30+65+31
 N134            	375         	0.142       	1               	;30+31
 N135            	375         	0.2697      	1               	;71+30
 N136            	375         	0.4203      	1               	;71+34+33+24
 N137            	375         	0.0645      	1               	;34
 N138            	367         	0.0949      	1               	;24
 N139            	381         	0.3004      	1               	;9+71
 N140            	381         	0.0554      	1               	;9
 N141            	385         	0.3777      	1               	;74+9+71+57+38
 N142            	385.2       	0.0576      	1               	;9+38
 N143            	385         	0.1183      	1               	;9+35
 N144            	375         	1.33954     	1               	;18+54
 N145            	375         	0.1193      	1               	;18+54
 N146            	376         	1.298743    	1               	;69
 N147            	375         	0.1034      	1               	;18+38
 N148            	385         	0.0468      	1               	;95
 N149            	385         	0.04        	1               	;
 N150            	387         	0.1249      	1               	;90+12
 N151            	378         	0.0723      	1               	;57+56
 N152            	378         	0.0933      	1               	;74+57+54
 N153            	381         	0.0326      	1               	;96+13
 N154            	385         	0.0774      	1               	;15
 N155            	389         	0.1773      	1               	;66
 N156            	375         	0.0159      	1               	;33			
 N157            	376         	0.0662      	1               	;102+87			
 N158            	376         	0.0244      	1               	;103			
 N159            	390         	0           	                	;			
 N160            	342.5       	0           	                	;			
 N161            	377         	0           	                	;PI 2			
 N162            	379.5       	0           	                	;PI 8			
 N163            	374.7       	0           	                	;PI 10			
 N164            	377         	0           	                	;PI 12			

[RESERVOIRS]
;ID              	Head        	Pattern         
 S1              	500         	                	;				

[TANKS]
;ID              	Elevation   	InitLevel   	MinLevel    	MaxLevel    	Diameter    	MinVol      	VolCurve

[PIPES]
;ID              	Node1           	Node2           	Length      	Diameter    	Roughness   	MinorLoss   	Status
 C2              	N3              	N1              	65.9        	300         	110         	0           	Open  	;
 C3              	N2              	N3              	340.34      	80          	110         	0           	Open  	;
 C4              	N1              	N4              	542.96      	250         	110         	0           	Open  	;
 C5              	N5              	N6              	68.55       	150         	110         	0           	Open  	;
 C6              	N6              	N7              	189.67      	150         	110         	0           	Open  	;
 C7              	N7              	N8              	151.48      	150         	110         	0           	Open  	;
 C8              	N11             	N12             	221.78      	80          	110         	0           	Open  	;
 C9              	N4              	N11             	194.83      	250         	110         	0           	Open  	;
 C10             	N11             	N10             	4.41        	250         	110         	0           	Open  	;
 C11             	N8              	N10             	207.29      	150         	110         	0           	Open  	;
 C12             	N10             	N9              	32.79       	250         	110         	0           	Open  	;
 C13             	N9              	N13             	128.43      	200         	110         	0           	Open  	;
 C14             	N13             	N14             	235.8       	200         	110         	0           	Open  	;
 C15             	N14             	N15             	345.43      	200         	110         	0           	Open  	;
 C16             	N9              	N16             	293.53      	100         	110         	0           	Open  	;
 C17             	N7              	N16             	100.72      	100         	110         	0           	Open  	;
 C18             	N21             	N13             	452.75      	60          	110         	0           	Open  	;
 C19             	N17             	N18             	55.54       	100         	110         	0           	Open  	;
 C20             	N17             	N21             	75.86       	100         	110         	0           	Open  	;
 C21             	N18             	N19             	41.05       	100         	110         	0           	Open  	;
 C22             	N19             	N20             	112.66      	100         	110         	0           	Open  	;
 C23             	N5              	N20             	191.51      	100         	110         	0           	Open  	;
 C24             	N22             	N19             	178.57      	63          	110         	0           	Open  	;
 C25             	N22             	N21             	135.22      	60          	110         	0           	Open  	;
 C26             	N24             	N25             	15.77       	100         	110         	0           	Open  	;
 C27             	N25             	N26             	256.32      	100         	110         	0           	Open  	;
 C28             	N20             	N27             	73.64       	100         	110         	0           	Open  	;
 C29             	N27             	N24             	244.76      	100         	110         	0           	Open  	;
 C30             	N27             	N28             	9.26        	300         	110         	0           	Open  	;
 C31             	N28             	N23             	183.53      	80          	100         	0           	Open  	;
 C32             	N28             	N1              	397.78      	300         	110         	0           	Open  	;
 C33             	N35             	N23             	68.56       	60          	110         	0           	Open  	;
 C34             	N34             	N31             	74.79       	100         	110         	0           	Open  	;
 C35             	N31             	N32             	11.76       	100         	110         	0           	Open  	;
 C36             	N32             	N33             	207.23      	100         	110         	0           	Open  	;
 C37             	N33             	N30             	13.29       	80          	110         	0           	Open  	;
 C38             	N30             	N31             	207.27      	100         	110         	0           	Open  	;
 C39             	N30             	N29             	17.9        	80          	110         	0           	Open  	;
 C40             	N24             	N29             	295.76      	80          	110         	0           	Open  	;
 C41             	N25             	N37             	297.01      	80          	110         	0           	Open  	;
 C42             	N23             	N36             	387.18      	100         	110         	0           	Open  	;
 C43             	N37             	N36             	17.46       	125         	110         	0           	Open  	;
 C44             	N38             	N39             	44.26       	100         	110         	0           	Open  	;
 C45             	N36             	N45             	17.17       	125         	110         	0           	Open  	;
 C46             	N45             	N44             	111.37      	100         	110         	0           	Open  	;
 C47             	N39             	N40             	72.1        	100         	110         	0           	Open  	;
 C48             	N40             	N41             	35.2        	100         	110         	0           	Open  	;
 C49             	N41             	N42             	32.66       	100         	110         	0           	Open  	;
 C50             	N42             	N43             	55.63       	100         	110         	0           	Open  	;
 C51             	N38             	N37             	90.02       	125         	110         	0           	Open  	;
 C52             	N43             	N46             	141.85      	80          	110         	0           	Open  	;
 C53             	N46             	N40             	12.14       	80          	110         	0           	Open  	;
 C54             	N43             	N44             	6.38        	125         	110         	0           	Open  	;91
 C55             	N39             	N47             	41.31       	100         	110         	0           	Open  	;
 C56             	N26             	N38             	71.38       	150         	110         	0           	Open  	;
 C57             	N49             	N53             	30.92       	150         	110         	0           	Open  	;
 C58             	N26             	N48             	37.17       	150         	110         	0           	Open  	;
 C59             	N48             	N50             	27.91       	150         	110         	0           	Open  	;
 C60             	N50             	N51             	26.73       	150         	110         	0           	Open  	;
 C61             	N51             	N55             	15.04       	150         	110         	0           	Open  	;
 C62             	N55             	N56             	17.68       	150         	110         	0           	Open  	;
 C63             	N48             	N49             	103.28      	63          	110         	0           	Open  	;
 C64             	N53             	N50             	100.8       	100         	110         	0           	Open  	;
 C65             	N51             	N52             	100         	100         	110         	0           	Open  	;
 C66             	N52             	N53             	21.51       	150         	110         	0           	Open  	;
 C67             	N52             	N54             	36          	150         	110         	0           	Open  	;
 C68             	N57             	N56             	109.12      	125         	110         	0           	Open  	;
 C69             	N57             	N54             	14.98       	150         	110         	0           	Open  	;
 C70             	N57             	N58             	104.19      	125         	110         	0           	Open  	;
 C71             	N47             	N59             	85.51       	150         	110         	0           	Open  	;
 C72             	N59             	N49             	19.35       	150         	110         	0           	Open  	;
 C73             	N59             	N60             	57.07       	80          	110         	0           	Open  	;
 C74             	N55             	N62             	23.98       	100         	110         	0           	Open  	;
 C75             	N61             	N54             	74.36       	80          	110         	0           	Open  	;
 C76             	N56             	N63             	66.09       	80          	110         	0           	Open  	;
 C77             	N63             	N64             	281.26      	100         	110         	0           	Open  	;
 C78             	N64             	N22             	179.15      	60          	110         	0           	Open  	;
 C79             	N71             	N66             	115.06      	80          	110         	0           	Open  	;
 C80             	N66             	N65             	14.07       	150         	110         	0           	Open  	;
 C81             	N65             	N67             	140.91      	80          	110         	0           	Open  	;
 C82             	N67             	N68             	13.34       	200         	110         	0           	Open  	;
 C83             	N68             	N69             	46.93       	80          	110         	0           	Open  	;
 C84             	N68             	N70             	84.62       	200         	110         	0           	Open  	;
 C85             	N67             	N57             	225.54      	200         	110         	0           	Open  	;
 C86             	N63             	N65             	215.08      	150         	110         	0           	Open  	;
 C87             	N71             	N72             	67.87       	80          	110         	0           	Open  	;
 C88             	N72             	N70             	99.05       	100         	110         	0           	Open  	;
 C89             	N66             	N73             	164.28      	150         	110         	0           	Open  	;
 C90             	N73             	N74             	91.87       	100         	110         	0           	Open  	;
 C91             	N73             	N76             	125.13      	150         	110         	0           	Open  	;
 C92             	N76             	N75             	79.9        	100         	110         	0           	Open  	;
 C93             	N15             	N77             	62.3        	150         	110         	0           	Open  	;
 C94             	N77             	N78             	96.35       	150         	110         	0           	Open  	;
 C95             	N80             	N79             	152.98      	150         	110         	0           	Open  	;
 C96             	N81             	N79             	736.02      	80          	110         	0           	Open  	;
 C97             	N79             	N77             	93.89       	150         	110         	0           	Open  	;
 C98             	N82             	N80             	1032.55     	80          	110         	0           	Open  	;
 C99             	N14             	N83             	136.08      	100         	110         	0           	Open  	;
 C100            	N83             	N76             	217.75      	150         	110         	0           	Open  	;
 C101            	N80             	N84             	706.57      	100         	110         	0           	Open  	;
 C102            	N4              	N85             	209.37      	100         	110         	0           	Open  	;
 C103            	N85             	N86             	83.36       	63          	110         	0           	Open  	;
 C104            	N87             	N85             	193.64      	63          	110         	0           	Open  	;
 C105            	N86             	N88             	258.7       	63          	110         	0           	Open  	;
 C106            	N88             	N89             	115.7       	80          	110         	0           	Open  	;
 C107            	N89             	N5              	393.96      	80          	110         	0           	Open  	;
 C108            	N90             	N89             	443.43      	80          	110         	0           	Open  	;
 C109            	N2              	N28             	260.82      	100         	110         	0           	Open  	;
 C110            	N58             	N91             	128.17      	100         	110         	0           	Open  	;
 C111            	N58             	N92             	1146.87     	125         	110         	0           	Open  	;
 C112            	N93             	N95             	220.92      	63          	110         	0           	Open  	;
 C113            	N93             	N94             	107.81      	80          	110         	0           	Open  	;
 C114            	N92             	N93             	915.15      	80          	110         	0           	Open  	;
 C115            	N96             	N92             	829.47      	80          	70          	0           	Open  	;
 C116            	N44             	N97             	48.51       	125         	110         	0           	Open  	;
 C117            	N97             	N98             	129.92      	125         	110         	0           	Open  	;
 C118            	N45             	N99             	94.13       	125         	110         	0           	Open  	;
 C119            	N99             	N100            	7.42        	125         	110         	0           	Open  	;
 C120            	N98             	N101            	169.97      	150         	110         	0           	Open  	;
 C121            	N100            	N101            	160.75      	100         	110         	0           	Open  	;
 C122            	N99             	N97             	126.59      	125         	110         	0           	Open  	;
 C123            	N43             	N102            	310.74      	80          	110         	0           	Open  	;
 C124            	N102            	N103            	14.09       	80          	110         	0           	Open  	;
 C125            	N103            	N104            	5.65        	150         	110         	0           	Open  	;
 C126            	N103            	N98             	227.27      	150         	110         	0           	Open  	;
 C127            	N104            	N105            	167.53      	150         	110         	0           	Open  	;
 C128            	N105            	N106            	74.32       	63          	110         	0           	Open  	;
 C129            	N96             	N107            	32.86       	150         	90          	0           	Open  	;
 C130            	N105            	N107            	524.53      	150         	110         	0           	Open  	;
 C131            	N107            	N108            	1164.91     	63          	110         	0           	Open  	;
 C132            	N96             	N109            	448.68      	150         	110         	0           	Open  	;
 C133            	N109            	N110            	593.86      	63          	110         	0           	Open  	;
 C134            	N45             	N29             	243.33      	100         	110         	0           	Open  	;
 C135            	N111            	N101            	138.84      	150         	110         	0           	Open  	;
 C136            	N100            	N111            	171.92      	125         	110         	0           	Open  	;
 C137            	N112            	N113            	133.36      	80          	110         	0           	Open  	;
 C138            	N113            	N114            	571.49      	63          	110         	0           	Open  	;
 C139            	N113            	N115            	510.18      	80          	110         	0           	Open  	;
 C140            	N115            	N116            	318.58      	80          	110         	0           	Open  	;
 C141            	N115            	N117            	200.33      	80          	110         	0           	Open  	;
 C142            	N117            	N118            	131.73      	63          	110         	0           	Open  	;
 C143            	N119            	N120            	206.73      	150         	110         	0           	Open  	;
 C144            	N120            	N121            	191.78      	63          	110         	0           	Open  	;
 C145            	N121            	N122            	12.29       	63          	110         	0           	Open  	;
 C146            	N119            	N122            	200.62      	80          	110         	0           	Open  	;
 C147            	N120            	N123            	108.2       	80          	110         	0           	Open  	;
 C148            	N123            	N117            	378.05      	80          	110         	0           	Open  	;
 C149            	N111            	N124            	133.91      	150         	110         	0           	Open  	;
 C150            	N124            	N125            	160.12      	110         	110         	0           	Open  	;
 C151            	N125            	N127            	259.61      	110         	110         	0           	Open  	;
 C152            	N121            	N128            	263.48      	63          	110         	0           	Open  	;
 C153            	N123            	N129            	321.72      	80          	110         	0           	Open  	;
 C154            	N129            	N130            	602.7       	63          	110         	0           	Open  	;
 C155            	N129            	N131            	54.2        	80          	110         	0           	Open  	;
 C156            	N122            	N133            	114.17      	80          	110         	0           	Open  	;
 C157            	N133            	N132            	234.55      	50          	110         	0           	Open  	;
 C158            	N135            	N136            	6.99        	200         	110         	0           	Open  	;
 C159            	N135            	N134            	13.21       	200         	110         	0           	Open  	;
 C160            	N136            	N137            	148.73      	60          	110         	0           	Open  	;
 C161            	N133            	N134            	1216.06     	80          	110         	0           	Open  	;
 C162            	N136            	N138            	1692.08     	110         	90          	0           	Open  	;
 C163            	N139            	N135            	976.9       	80          	110         	0           	Open  	;