[TITLE]


[JUNCTIONS]
;ID              	Elev        	Demand      	Pattern         
 TL15160311A     	71.370000   	0.004184    	Leakage         	;
 TL15170315A     	71.347800   	0.000000    	                	;
 TL15220262A     	69.726551   	0.020920    	Leakage         	;
 TL15230291A     	70.879587   	0.062759    	Leakage         	;
 TL15240290A     	71.178715   	0.033471    	Leakage         	;
 TL15240291A     	71.118481   	0.037655    	Leakage         	;
 TL15240292A     	71.320600   	0.050207    	Leakage         	;
 TL15250289A     	71.000798   	0.033471    	Leakage         	;
 TL15310267A     	71.177837   	0.058575    	Leakage         	;
 TL15320268A     	71.306558   	0.092046    	Leakage         	;
 TL15340264A     	70.975947   	0.000000    	                	;
 TL15350254A     	69.859840   	0.000000    	                	;
 TL15350262A     	71.069841   	0.000000    	                	;
 TL15370254A     	69.972904   	0.000000    	                	;
 TL15370256A     	70.224600   	0.000000    	                	;
 TL15370258A     	70.772400   	0.000000    	                	;
 TL15390254A     	69.992270   	0.000000    	                	;
 TL15410249A     	70.180000   	0.004184    	Leakage         	;
 TL15420246A     	69.789800   	0.000000    	                	;
 TL15430243A     	69.904672   	0.000000    	                	;
 TL15460231A     	70.332610   	0.000000    	                	;
 TL15470231A     	70.652566   	0.000000    	                	;
 TL15470231B     	70.737062   	0.000000    	                	;
 TL15470231C     	70.757227   	0.000000    	                	;
 TL15470231D     	70.798603   	0.000000    	                	;
 TL15470232A     	70.718541   	0.000000    	                	;
 TL15480227A     	70.746400   	0.000000    	                	;
 TL15480231A     	70.848568   	0.000000    	                	;
 TL15490222A     	70.879600   	0.004184    	Leakage         	;
 TL15490222B     	70.890200   	0.029287    	Leakage         	;
 TL15490225A     	70.809400   	0.000000    	                	;
 TL15490225B     	70.919600   	0.000000    	                	;
 TL15500221A     	71.162989   	0.000000    	                	;
 TL15500221B     	71.209041   	0.000000    	                	;
 TL15500222A     	71.090884   	0.000000    	                	;
 TL15500222B     	71.115736   	0.000000    	                	;
 TL15500222C     	71.135332   	0.000000    	                	;
 TL15500222D     	71.219053   	0.000000    	                	;
 TL15510222A     	71.326143   	0.000000    	                	;
 TL15520216A     	71.498400   	0.000000    	                	;
 TL15540208A     	70.987377   	0.000000    	                	;
 TL15550203A     	70.716600   	0.000000    	                	;
 TL15550203B     	70.880600   	0.000000    	                	;
 TL15550203C     	70.814400   	0.000000    	                	;
 TL15570196A     	69.880355   	0.000000    	                	;
 TL15570196B     	69.835725   	0.000000    	                	;
 TL15570198A     	70.233644   	0.000000    	                	;
 TL15580196A     	69.841204   	0.000000    	                	;
 TL15580197A     	70.041790   	0.000000    	                	;
 TL15580197B     	69.903351   	0.000000    	                	;
 TL15580199A     	70.523622   	0.000000    	                	;
 TL15590197A     	69.999651   	0.000000    	                	;
 TL15590197B     	70.132010   	0.000000    	                	;
 TL15610226A     	74.350000   	0.000000    	                	;
 TL15610263A     	75.000000   	0.000000    	                	;
 TL15620261A     	75.000000   	0.000000    	                	;
 TL15630197A     	70.178000   	0.000000    	                	;
 TL15640192A     	66.866680   	0.000000    	                	;
 TL15640193A     	67.603576   	0.000000    	                	;
 TL15640255A     	75.000000   	0.000000    	                	;
 TL15650219A     	73.867400   	0.000000    	                	;
 TL15650255A     	75.000000   	0.000000    	                	;
 TL15650256A     	75.000000   	0.000000    	                	;
 TL15660228A     	74.747400   	0.000000    	                	;
 TL15670191A     	64.913990   	0.000000    	                	;
 TL15670213A     	72.700000   	0.000000    	                	;
 TL15680229A     	74.876200   	0.000000    	                	;
 TL15680249A     	75.000000   	0.008368    	Leakage         	;
 TL15690247A     	75.000000   	0.000000    	                	;
 TL15690257A     	75.000000   	0.000000    	                	;
 TL15690257B     	75.000000   	0.004184    	Leakage         	;
 TL15700192A     	65.710695   	0.000000    	                	;
 TL15700192B     	65.730035   	0.000000    	                	;
 TL15710243A     	75.000000   	0.000000    	                	;
 TL15720241A     	75.000000   	0.000000    	                	;
 TL15730238A     	74.761779   	0.000000    	                	;
 TL15750260A     	74.945400   	0.000000    	                	;
 TL15750260B     	74.845600   	0.000000    	                	;
 TL15790262A     	74.145400   	0.000000    	                	;
 TL15790262B     	74.065400   	0.000000    	                	;
 TL15810263A     	74.000000   	0.004184    	Leakage         	;
 TL15810263B     	74.000000   	0.008368    	Leakage         	;
 TL15860265A     	73.780200   	0.000000    	                	;
 TL15880280A     	73.390000   	0.000000    	                	;
 TL15980374A     	74.000000   	0.000000    	                	;
 TL16120492A     	92.789448   	0.008368    	Leakage         	;
 TL16120493A     	92.920336   	0.000000    	                	;
 TL16120493B     	93.022695   	0.000000    	                	;
 TL16120496A     	93.498600   	0.000000    	                	;
 TL16120496B     	93.582400   	0.000000    	                	;
 TL16150469A     	90.065510   	0.000000    	                	;
 TL16150469B     	90.075176   	0.000000    	                	;
 TL16150469C     	90.105903   	0.000000    	                	;
 TL16160476A     	90.470802   	0.000000    	                	;
 TL16160476B     	90.514315   	0.000000    	                	;
 TL16170485A     	91.087400   	0.000000    	                	;
 TL16180492A     	93.095200   	0.000000    	                	;
 TL16180492B     	93.084800   	0.000000    	                	;
 TL16210484A     	91.000000   	0.000000    	                	;
 TL16260459A     	89.972544   	0.000000    	                	;
 TL16270405A     	77.129600   	0.020920    	Leakage         	;
 TL16270406A     	77.204600   	0.012552    	Leakage         	;
 TL16290413A     	78.668800   	0.033471    	Leakage         	;
 TL16300413A     	78.641800   	0.000000    	                	;
 TL16310396A     	75.235800   	0.000000    	                	;
 TL16320404A     	76.912600   	0.000000    	                	;
 TL16330412A     	78.476000   	0.004184    	Leakage         	;
 TL16340395A     	75.156000   	0.012552    	Leakage         	;
 TL16360424A     	80.884400   	0.008368    	Leakage         	;
 TL16360433A     	83.830817   	0.000000    	                	;
 TL16380404A     	76.883600   	0.000000    	                	;
 TL16380404B     	76.987200   	0.016736    	Leakage         	;
 TL16390403A     	76.753800   	0.000000    	                	;
 TL16390430A     	83.213408   	0.000000    	                	;
 TL16410413A     	78.511424   	0.000000    	                	;
 TL16420413A     	78.391113   	0.000000    	                	;
 TL16430392A     	74.409488   	0.000000    	                	;
 TL16430404A     	76.801800   	0.012552    	Leakage         	;
 TL16450390A     	74.062200   	0.000000    	                	;
 TL16480389A     	73.879400   	0.025103    	Leakage         	;
 TL16500387A     	73.635000   	0.000000    	                	;
 TL16500411A     	78.034503   	0.000000    	                	;
 TL16500411B     	78.039576   	0.004184    	Leakage         	;
 TL16500419A     	78.827800   	0.000000    	                	;
 TL16510386A     	73.725000   	0.000000    	                	;
 TL16520415A     	78.660800   	0.000000    	                	;
 TL16550384A     	74.013200   	0.000000    	                	;
 TL16560409A     	78.236776   	0.016736    	Leakage         	;
 TL16570409A     	78.371118   	0.000000    	                	;
 TL16580382A     	74.713600   	0.050207    	Leakage         	;
 TL16580413A     	78.910943   	0.000000    	                	;
 TL16610382A     	75.175204   	0.000000    	                	;
 TL16630383A     	75.499564   	0.008368    	Leakage         	;
 TL16650384A     	75.807582   	0.000000    	                	;
 TL16650384B     	75.790444   	0.000000    	                	;
 TL16670385A     	75.474718   	0.000000    	                	;
 TL16680386A     	75.385845   	0.008368    	Leakage         	;
 TL16690421A     	80.226000   	0.020920    	Leakage         	;
 TL16690423A     	80.716800   	0.004184    	Leakage         	;
 TL16700386A     	75.340052   	0.050207    	Leakage         	;
 TL16700424A     	80.885000   	0.016736    	Leakage         	;
 TL16730394A     	75.356200   	0.000000    	                	;
 TL16730421A     	80.279000   	0.012552    	Leakage         	;
 TL16730424A     	80.898200   	0.000000    	                	;
 TL16740396A     	75.558400   	0.000000    	                	;
 TL16760416A     	79.727370   	0.020920    	Leakage         	;
 TL16760419A     	79.988244   	0.008368    	Leakage         	;
 TL16770411A     	78.649200   	0.020920    	Leakage         	;
 TL16780420A     	80.169000   	0.020920    	Leakage         	;
 TL16800409A     	77.871894   	0.000000    	                	;
 TL16830400A     	75.240880   	0.000000    	                	;
 TL16840398A     	74.645600   	0.037655    	Leakage         	;
 TL16850409A     	77.727200   	0.000000    	                	;
 TL16860406A     	76.249200   	0.000000    	                	;
 TL16900407A     	75.751940   	0.000000    	                	;
 TL16920403A     	74.797600   	0.046023    	Leakage         	;
 TL16930418A     	79.406133   	0.000000    	                	;
 TL16980421A     	79.019128   	0.012552    	Leakage         	;
 V_103377695_A   	76.896200   	0.000000    	                	;
 V_103377695_B   	76.912200   	0.000000    	                	;
 V_103377769_A   	78.505600   	0.000000    	                	;
 V_103377769_B   	78.501559   	0.016736    	Leakage         	;
 V_103378271_A   	73.775600   	0.000000    	                	;
 V_103378271_B   	73.748200   	0.000000    	                	;
 V_103378281_A   	74.687400   	0.000000    	                	;
 V_103378281_B   	74.677800   	0.037655    	Leakage         	;
 V_103378307_A   	75.759334   	0.000000    	                	;
 V_103378307_B   	75.782359   	0.000000    	                	;
 V_103378323_A   	75.805301   	0.000000    	                	;
 V_103378323_B   	75.800121   	0.000000    	                	;
 V_103378345_A   	75.821036   	0.000000    	                	;
 V_103378345_B   	75.829748   	0.033471    	Leakage         	;
 V_103378359_A   	75.514156   	0.066943    	Leakage         	;
 V_103378359_B   	75.496278   	0.000000    	                	;
 V_103378381_A   	75.492851   	0.000000    	                	;
 V_103378381_B   	75.482007   	0.000000    	                	;
 V_103378407_A   	75.469092   	0.000000    	                	;
 V_103378407_B   	75.459213   	0.000000    	                	;
 V_103378435_A   	75.358000   	0.020920    	Leakage         	;
 V_103378435_B   	75.357200   	0.000000    	                	;
 V_103378463_A   	75.417000   	0.037655    	Leakage         	;
 V_103378463_B   	75.399000   	0.000000    	                	;
 V_103378816_A   	77.716200   	0.000000    	                	;
 V_103378816_B   	77.726200   	0.000000    	                	;
 V_103421871_A   	78.264862   	0.000000    	                	;
 V_103421871_B   	78.254424   	0.000000    	                	;
 V_104083030_A   	78.245880   	0.000000    	                	;
 V_104083030_B   	78.260289   	0.000000    	                	;
 V_104083507_A   	77.882418   	0.000000    	                	;
 V_104083507_B   	77.877257   	0.000000    	                	;
 V_104083523_A   	77.855850   	0.000000    	                	;
 V_104083523_B   	77.864767   	0.000000    	                	;
 V_104083533_A   	77.882345   	0.000000    	                	;
 V_104083533_B   	77.900092   	0.000000    	                	;
 V_104083581_A   	78.657000   	0.000000    	                	;
 V_104083581_B   	78.669200   	0.025103    	Leakage         	;
 V_104083885_A   	79.769562   	0.020920    	Leakage         	;
 V_104083885_B   	79.754150   	0.000000    	                	;
 V_104084315_A   	80.082600   	0.004184    	Leakage         	;
 V_104084315_B   	80.064400   	0.000000    	                	;
 V_104084361_A   	80.898400   	0.012552    	Leakage         	;
 V_104084361_B   	80.898400   	0.000000    	                	;
 V_104084365_A   	80.898600   	0.020920    	Leakage         	;
 V_104084365_B   	80.898400   	0.000000    	                	;
 V_104084469_A   	80.279000   	0.000000    	                	;
 V_104084469_B   	80.279000   	0.008368    	Leakage         	;
 V_104084483_A   	80.197400   	0.004184    	Leakage         	;
 V_104084483_B   	80.217600   	0.000000    	                	;
 V_104084611_A   	79.741415   	0.000000    	                	;
 V_104084611_B   	79.748531   	0.004184    	Leakage         	;
 V_104084615_A   	79.989470   	0.016736    	Leakage         	;
 V_104084615_B   	79.988690   	0.000000    	                	;
 V_104084864_A   	80.868400   	0.004184    	Leakage         	;
 V_104084864_B   	80.888400   	0.000000    	                	;
 V_112021986_A   	73.878600   	0.000000    	                	;
 V_112021986_B   	73.870800   	0.000000    	                	;
 V_117572889_A   	76.855200   	0.000000    	                	;
 V_117572889_B   	76.868800   	0.000000    	                	;
 V_117572933_A   	78.505079   	0.000000    	                	;
 V_117572933_B   	78.484560   	0.000000    	                	;
 V_117572949_A   	78.517647   	0.000000    	                	;
 V_117572949_B   	78.538376   	0.000000    	                	;
 V_117573093_A   	78.452000   	0.012552    	Leakage         	;
 V_117573093_B   	78.471600   	0.000000    	                	;
 V_117573121_A   	78.637400   	0.000000    	                	;
 V_117573121_B   	78.632800   	0.008368    	Leakage         	;
 V_117573139_A   	78.549000   	0.008368    	Leakage         	;
 V_117573139_B   	78.568400   	0.000000    	                	;
 V_117573306_A   	78.651200   	0.000000    	                	;
 V_117573306_B   	78.646400   	0.000000    	                	;
 V_117573414_A   	75.270400   	0.000000    	                	;
 V_117573414_B   	75.250200   	0.000000    	                	;
 V_117573436_A   	75.231600   	0.012552    	Leakage         	;
 V_117573436_B   	75.234600   	0.000000    	                	;
 V_117573440_A   	75.236400   	0.000000    	                	;
 V_117573440_B   	75.237200   	0.000000    	                	;
 V_117573456_A   	75.172200   	0.000000    	                	;
 V_117573456_B   	75.184000   	0.004184    	Leakage         	;
 V_117573472_A   	74.439399   	0.008368    	Leakage         	;
 V_117573472_B   	74.426769   	0.004184    	Leakage         	;
 V_117573514_A   	75.123600   	0.016736    	Leakage         	;
 V_117573514_B   	75.142600   	0.000000    	                	;
 V_117573572_A   	76.885600   	0.000000    	                	;
 V_117573572_B   	76.866800   	0.004184    	Leakage         	;
 V_117573576_A   	76.906200   	0.000000    	                	;
 V_117573576_B   	76.900200   	0.000000    	                	;
 V_117573580_A   	76.923400   	0.012552    	Leakage         	;
 V_117573580_B   	76.917600   	0.000000    	                	;
 V_120761661_A   	73.996847   	0.000000    	                	;
 V_120761661_B   	74.006800   	0.000000    	                	;
 V_120762219_A   	73.577000   	0.000000    	                	;
 V_120762219_B   	73.605000   	0.000000    	                	;
 V_120762223_A   	74.042800   	0.000000    	                	;
 V_120762223_B   	74.055000   	0.000000    	                	;
 V_120762471_A   	75.174790   	0.000000    	                	;
 V_120762471_B   	75.173020   	0.000000    	                	;
 V_120762852_A   	75.197484   	0.000000    	                	;
 V_120762852_B   	75.191893   	0.000000    	                	;
 V_120762936_A   	74.676000   	0.000000    	                	;
 V_120762936_B   	74.695200   	0.000000    	                	;
 V_120762960_A   	75.522000   	0.000000    	                	;
 V_120762960_B   	75.550200   	0.000000    	                	;
 V_120763545_A   	75.312129   	0.000000    	                	;
 V_120763545_B   	75.331275   	0.000000    	                	;
 V_129363029_A   	73.856200   	0.000000    	                	;
 V_129363029_B   	73.840200   	0.000000    	                	;
 V_129858717_A   	79.479406   	0.025103    	Leakage         	;
 V_129858717_B   	79.448799   	0.000000    	                	;
 V_138581024_A   	75.355600   	0.000000    	                	;
 V_138581024_B   	75.355600   	0.000000    	                	;
 V_24019401_A    	61.078592   	0.000000    	                	;
 V_24019401_B    	61.093986   	0.000000    	                	;
 V_24019555_A    	69.829560   	0.000000    	                	;
 V_279679299_A   	71.178430   	0.000000    	                	;
 V_279679299_B   	71.170250   	0.000000    	                	;
 V_279679323_A   	71.246595   	0.000000    	                	;
 V_279679323_B   	71.222259   	0.000000    	                	;
 V_279679353_A   	70.793800   	0.000000    	                	;
 V_279679353_B   	70.799800   	0.000000    	                	;
 V_279679489_A   	70.853600   	0.000000    	                	;
 V_279679489_B   	70.864000   	0.000000    	                	;
 V_279686441_A   	69.883422   	0.000000    	                	;
 V_279686441_B   	69.887860   	0.000000    	                	;
 V_279686453_A   	70.112410   	0.000000    	                	;
 V_279686453_B   	70.129620   	0.000000    	                	;
 V_279686465_A   	69.967391   	0.000000    	                	;
 V_279686465_B   	69.942483   	0.000000    	                	;
 V_279686477_A   	70.815000   	0.020920    	Leakage         	;
 V_279686477_B   	70.791000   	0.000000    	                	;
 V_279688166_A   	93.028000   	0.000000    	                	;
 V_279688166_B   	93.068000   	0.000000    	                	;
 V_279703340_A   	69.996138   	0.000000    	                	;
 V_279703340_B   	69.994476   	0.000000    	                	;
 V_279703346_A   	75.000000   	0.000000    	                	;
 V_279703346_B   	75.000000   	0.000000    	                	;
 V_279703350_A   	70.883117   	0.004184    	Leakage         	;
 V_279703350_B   	70.885795   	0.000000    	                	;
 V_279703356_A   	70.976616   	0.000000    	                	;
 V_279703356_B   	70.947245   	0.000000    	                	;
 V_279703384_A   	69.997709   	0.000000    	                	;
 V_279703384_B   	69.995396   	0.000000    	                	;
 V_279703390_A   	75.000000   	0.000000    	                	;
 V_279703390_B   	75.000000   	0.000000    	                	;
 V_279703402_A   	75.000000   	0.008368    	Leakage         	;
 V_279703402_B   	75.000000   	0.000000    	                	;
 V_279703408_A   	75.000000   	0.000000    	                	;
 V_279703408_B   	75.000000   	0.000000    	                	;
 V_279703420_A   	75.000000   	0.000000    	                	;
 V_279703420_B   	75.000000   	0.000000    	                	;
 V_279703438_A   	74.799107   	0.000000    	                	;
 V_279703438_B   	74.814957   	0.000000    	                	;
 V_279703442_A   	74.818000   	0.000000    	                	;
 V_279703442_B   	74.808000   	0.004184    	Leakage         	;
 V_279703460_A   	74.766000   	0.000000    	                	;
 V_279703460_B   	74.759600   	0.000000    	                	;
 V_279703472_A   	74.732800   	0.000000    	                	;
 V_279703472_B   	74.726400   	0.000000    	                	;
 V_279703478_A   	70.868600   	0.000000    	                	;
 V_279703478_B   	70.864000   	0.000000    	                	;
 V_279703490_A   	70.901600   	0.000000    	                	;
 V_279703490_B   	70.920400   	0.000000    	                	;
 V_279703496_A   	71.170248   	0.000000    	                	;
 V_279703496_B   	71.200925   	0.000000    	                	;
 V_279703508_A   	71.101808   	0.000000    	                	;
 V_279703508_B   	71.109792   	0.000000    	                	;
 V_279703514_A   	70.892400   	0.000000    	                	;
 V_279703514_B   	70.911800   	0.000000    	                	;
 V_279703526_A   	70.392488   	0.000000    	                	;
 V_279703526_B   	70.366441   	0.000000    	                	;
 V_279703532_A   	70.696998   	0.000000    	                	;
 V_279703532_B   	70.668333   	0.000000    	                	;
 V_279703544_A   	70.741528   	0.000000    	                	;
 V_279703544_B   	70.740537   	0.000000    	                	;
 V_279703550_A   	70.706014   	0.000000    	                	;
 V_279703550_B   	70.734247   	0.000000    	                	;
 V_279703562_A   	75.000000   	0.000000    	                	;
 V_279703562_B   	75.000000   	0.000000    	                	;
 V_279703566_A   	75.000000   	0.000000    	                	;
 V_279703566_B   	75.000000   	0.000000    	                	;
 V_279703578_A   	75.000000   	0.000000    	                	;
 V_279703578_B   	75.000000   	0.000000    	                	;
 V_279703584_A   	75.000000   	0.000000    	                	;
 V_279703584_B   	75.000000   	0.000000    	                	;
 V_279703596_A   	75.000000   	0.000000    	                	;
 V_279703596_B   	75.000000   	0.000000    	                	;
 V_279703602_A   	75.000000   	0.000000    	                	;
 V_279703602_B   	75.000000   	0.000000    	                	;
 V_279703614_A   	74.912600   	0.000000    	                	;
 V_279703614_B   	74.893800   	0.000000    	                	;
 V_279703620_A   	75.000000   	0.000000    	                	;
 V_279703620_B   	75.000000   	0.000000    	                	;
 V_279703624_A   	75.000000   	0.000000    	                	;
 V_279703624_B   	75.000000   	0.000000    	                	;
 V_279703640_A   	75.000000   	0.000000    	                	;
 V_279703640_B   	75.000000   	0.000000    	                	;
 V_279703646_A   	71.205358   	0.000000    	                	;
 V_279703646_B   	71.192145   	0.000000    	                	;
 V_279703652_A   	71.151658   	0.000000    	                	;
 V_279703652_B   	71.164028   	0.000000    	                	;
 V_279703658_A   	71.138820   	0.000000    	                	;
 V_279703658_B   	71.142951   	0.000000    	                	;
 V_279703664_A   	71.231400   	0.000000    	                	;
 V_279703664_B   	71.206800   	0.000000    	                	;
 V_279703670_A   	73.384000   	0.000000    	                	;
 V_279703670_B   	73.386000   	0.000000    	                	;
 V_279703676_A   	74.000000   	0.000000    	                	;
 V_279703676_B   	74.000000   	0.000000    	                	;
 V_279703730_B   	93.605400   	0.000000    	                	;
 V_279703742_A   	93.066907   	0.000000    	                	;
 V_279703742_B   	93.035311   	0.000000    	                	;
 V_279703748_A   	92.990926   	0.000000    	                	;
 V_279703760_A   	93.043487   	0.000000    	                	;
 V_279703760_B   	93.033369   	0.000000    	                	;
 V_279703766_A   	92.909382   	0.000000    	                	;
 V_279703766_B   	92.916105   	0.000000    	                	;
 V_279705544_A   	68.421000   	0.008368    	Leakage         	;
 V_279705556_A   	71.404000   	0.000000    	                	;
 V_279705556_B   	71.384000   	0.000000    	                	;
 V_279705562_A   	71.663400   	0.029287    	Leakage         	;
 V_279705562_B   	71.653600   	0.000000    	                	;
 V_279705586_A   	74.000000   	0.000000    	                	;
 V_279705586_B   	74.000000   	0.000000    	                	;
 V_279739410_A   	70.762800   	0.000000    	                	;
 V_279739410_B   	70.756400   	0.000000    	                	;
 V_279739422_A   	70.732000   	0.000000    	                	;
 V_279739422_B   	70.737600   	0.000000    	                	;
 V_279739428_A   	69.764600   	0.000000    	                	;
 V_279739428_B   	69.776400   	0.000000    	                	;
 V_279739434_A   	70.717790   	0.000000    	                	;
 V_279739434_B   	70.717262   	0.016736    	Leakage         	;
 V_279739446_A   	69.818800   	0.000000    	                	;
 V_279739446_B   	69.806600   	0.000000    	                	;
 V_279784954_A   	71.022042   	0.000000    	                	;
 V_279784954_B   	71.009934   	0.000000    	                	;
 V_279789104_A   	70.787600   	0.000000    	                	;
 V_279789104_B   	70.762000   	0.000000    	                	;
 V_279789110_A   	70.843600   	0.000000    	                	;
 V_279789110_B   	70.869400   	0.000000    	                	;
 V_279790105_A   	71.372400   	0.066943    	Leakage         	;
 V_279790105_B   	71.371200   	0.000000    	                	;
 V_279790117_A   	71.366800   	0.012552    	Leakage         	;
 V_279790117_B   	71.367400   	0.004184    	Leakage         	;
 V_279792990_A   	70.173800   	0.008368    	Leakage         	;
 V_279792990_B   	70.192600   	0.000000    	                	;
 V_279805250_A   	69.854395   	0.000000    	                	;
 V_279805250_B   	69.838439   	0.000000    	                	;
 V_30713839_A    	90.490931   	0.000000    	                	;
 V_30713839_B    	90.474658   	0.000000    	                	;
 V_30713857_A    	90.467090   	0.000000    	                	;
 V_30713857_B    	90.450243   	0.000000    	                	;
 V_30713867_A    	90.476463   	0.000000    	                	;
 V_30713867_B    	90.489788   	0.025103    	Leakage         	;
 V_30713897_A    	91.084600   	0.000000    	                	;
 V_30713897_B    	91.082200   	0.025103    	Leakage         	;
 V_30713959_A    	90.067525   	0.000000    	                	;
 V_30713973_A    	89.977134   	0.000000    	                	;
 V_30713973_B    	89.983003   	0.037655    	Leakage         	;
 V_30714002_A    	89.969169   	0.000000    	                	;
 V_30714002_B    	89.962383   	0.020920    	Leakage         	;
 V_30714016_A    	89.969915   	0.000000    	                	;
 V_30714016_B    	89.968366   	0.004184    	Leakage         	;
 V_32404974_A    	91.000000   	0.000000    	                	;
 V_32404974_B    	91.000000   	0.012552    	Leakage         	;
 V_32404978_A    	91.015200   	0.000000    	                	;
 V_32404978_B    	91.000000   	0.000000    	                	;
 V_32486629_A    	86.623246   	0.000000    	                	;
 V_32486629_B    	86.586943   	0.012552    	Leakage         	;
 V_32818468_A    	70.274800   	0.000000    	                	;
 V_32818468_B    	70.261200   	0.000000    	                	;
 V_32818474_A    	69.546000   	0.000000    	                	;
 V_32818474_B    	69.508400   	0.000000    	                	;
 V_72119530_A    	74.347000   	0.000000    	                	;
 V_72119530_B    	74.327800   	0.000000    	                	;
 V_72126711_A    	72.712800   	0.008368    	Leakage         	;
 V_72126711_B    	72.705200   	0.000000    	                	;
 V_72126717_A    	72.689400   	0.004184    	Leakage         	;
 V_72126717_B    	72.696400   	0.000000    	                	;
 V_95952216_B    	72.741800   	0.000000    	                	;
 V_95952228_A    	74.629000   	0.000000    	                	;
 V_95952228_B    	74.609600   	0.000000    	                	;
 V_95952244_A    	74.644400   	0.000000    	                	;
 V_95952244_B    	74.641800   	0.000000    	                	;
 V_95952431_A    	76.299800   	0.000000    	                	;
 V_95952431_B    	76.343200   	0.000000    	                	;
 V_95952455_A    	75.754963   	0.000000    	                	;
 V_95952455_B    	75.757431   	0.000000    	                	;
 V_95952477_A    	75.759304   	0.000000    	                	;
 V_95952477_B    	75.768543   	0.000000    	                	;
 V_96023669_A    	83.266558   	0.000000    	                	;
 V_96023669_B    	83.229642   	0.000000    	                	;
 V_96023685_A    	83.206808   	0.000000    	                	;
 V_96023685_B    	83.196972   	0.000000    	                	;
 V_96023695_A    	83.150828   	0.033471    	Leakage         	;
 V_96023695_B    	83.186416   	0.000000    	                	;
 V_96024984_A    	78.816200   	0.000000    	                	;
 V_96024984_B    	78.809000   	0.000000    	                	;
 V_96024988_A    	78.889400   	0.000000    	                	;
 V_96024988_B    	78.860800   	0.000000    	                	;
 V_96025014_A    	78.910510   	0.000000    	                	;
 V_96025014_B    	78.910907   	0.000000    	                	;
 V_96025030_A    	78.924135   	0.000000    	                	;
 V_96025030_B    	78.932521   	0.020920    	Leakage         	;
 V_96025058_A    	78.905927   	0.000000    	                	;
 V_96025058_B    	78.896602   	0.000000    	                	;
 V_96025233_A    	78.625400   	0.008368    	Leakage         	;
 V_96025233_B    	78.652400   	0.000000    	                	;
 V_96025263_A    	78.805400   	0.000000    	                	;
 V_96025263_B    	78.794800   	0.054391    	Leakage         	;
 V_96025273_A    	80.859600   	0.037655    	Leakage         	;
 V_96025273_B    	80.870400   	0.000000    	                	;
 V_96026403_A    	90.530525   	0.000000    	                	;
 V_96026403_B    	90.546918   	0.000000    	                	;
 V_96026417_A    	90.512128   	0.000000    	                	;
 V_96026417_B    	90.517220   	0.000000    	                	;